ac_opf/testcases/nesta_case57_ieee__api.m
%%%%%%%%%%%%%%%%%%%%%%%%%%%%%%%%%%%%%%%%%%%%%%%%%%%%%%%%%%%%%%%%%%%%%%%%%%%
%%%%                                                                  %%%%%
%%%%      NICTA Energy System Test Case Archive (NESTA) - v0.7.0      %%%%%
%%%%            Optimal Power Flow - Active Power Increase            %%%%%
%%%%                         05 - June - 2017                         %%%%%
%%%%                                                                  %%%%%
%%%%%%%%%%%%%%%%%%%%%%%%%%%%%%%%%%%%%%%%%%%%%%%%%%%%%%%%%%%%%%%%%%%%%%%%%%%
function mpc = nesta_case57_ieee__api
mpc.version = '2';
mpc.baseMVA = 100.0;

%% bus data
%	bus_i	type	Pd	Qd	Gs	Bs	area	Vm	Va	baseKV	zone	Vmax	Vmin
mpc.bus = [
	1	 3	 63.42	 17.00	 0.0	 0.0	 1	    0.99827	    0.00000	 0.0	 1	    1.06000	    0.94000;
	2	 2	 3.46	 88.00	 0.0	 0.0	 1	    1.00110	    2.27576	 0.0	 1	    1.06000	    0.94000;
	3	 2	 47.28	 21.00	 0.0	 0.0	 1	    1.04902	    8.64298	 0.0	 1	    1.06000	    0.94000;
	4	 1	 0.00	 0.00	 0.0	 0.0	 1	    1.03996	    4.79057	 0.0	 1	    1.06000	    0.94000;
	5	 1	 14.99	 4.00	 0.0	 0.0	 1	    1.03302	   -0.28426	 0.0	 1	    1.06000	    0.94000;
	6	 2	 86.49	 2.00	 0.0	 0.0	 1	    1.03793	   -2.26673	 0.0	 1	    1.06000	    0.94000;
	7	 1	 0.00	 0.00	 0.0	 0.0	 1	    1.03375	   -4.09596	 0.0	 1	    1.06000	    0.94000;
	8	 2	 172.98	 22.00	 0.0	 0.0	 1	    1.05450	   -2.97871	 0.0	 1	    1.06000	    0.94000;
	9	 2	 139.53	 26.00	 0.0	 0.0	 1	    1.00476	   -5.91185	 0.0	 1	    1.06000	    0.94000;
	10	 1	 5.77	 2.00	 0.0	 0.0	 1	    0.97558	   -5.84613	 0.0	 1	    1.06000	    0.94000;
	11	 1	 0.00	 0.00	 0.0	 0.0	 1	    0.98180	   -5.04174	 0.0	 1	    1.06000	    0.94000;
	12	 2	 434.75	 24.00	 0.0	 0.0	 1	    0.97848	   -3.25677	 0.0	 1	    1.06000	    0.94000;
	13	 1	 20.76	 2.30	 0.0	 0.0	 1	    0.97378	   -3.27458	 0.0	 1	    1.06000	    0.94000;
	14	 1	 12.11	 5.30	 0.0	 0.0	 1	    0.96907	   -2.30233	 0.0	 1	    1.06000	    0.94000;
	15	 1	 25.37	 5.00	 0.0	 0.0	 1	    0.99367	    0.81957	 0.0	 1	    1.06000	    0.94000;
	16	 1	 49.59	 3.00	 0.0	 0.0	 1	    0.97716	   -4.05026	 0.0	 1	    1.06000	    0.94000;
	17	 1	 48.43	 8.00	 0.0	 0.0	 1	    0.97959	   -3.09889	 0.0	 1	    1.06000	    0.94000;
	18	 1	 31.37	 9.80	 0.0	 10.0	 1	    1.06000	   -0.34391	 0.0	 1	    1.06000	    0.94000;
	19	 1	 3.81	 0.60	 0.0	 0.0	 1	    0.99877	   -3.53127	 0.0	 1	    1.06000	    0.94000;
	20	 1	 2.65	 1.00	 0.0	 0.0	 1	    0.97558	   -4.86263	 0.0	 1	    1.06000	    0.94000;
	21	 1	 0.00	 0.00	 0.0	 0.0	 1	    1.01602	   -6.43954	 0.0	 1	    1.06000	    0.94000;
	22	 1	 0.00	 0.00	 0.0	 0.0	 1	    1.01344	   -6.65323	 0.0	 1	    1.06000	    0.94000;
	23	 1	 7.27	 2.10	 0.0	 0.0	 1	    1.01257	   -6.79178	 0.0	 1	    1.06000	    0.94000;
	24	 1	 0.00	 0.00	 0.0	 0.0	 1	    1.01456	   -8.23795	 0.0	 1	    1.06000	    0.94000;
	25	 1	 7.27	 3.20	 0.0	 5.9	 1	    0.99360	  -13.66174	 0.0	 1	    1.06000	    0.94000;
	26	 1	 0.00	 0.00	 0.0	 0.0	 1	    0.97717	   -7.97862	 0.0	 1	    1.06000	    0.94000;
	27	 1	 10.72	 0.50	 0.0	 0.0	 1	    1.01646	   -7.52105	 0.0	 1	    1.06000	    0.94000;
	28	 1	 5.30	 2.30	 0.0	 0.0	 1	    1.03828	   -6.81995	 0.0	 1	    1.06000	    0.94000;
	29	 1	 19.60	 2.60	 0.0	 0.0	 1	    1.05597	   -6.31328	 0.0	 1	    1.06000	    0.94000;
	30	 1	 4.15	 1.80	 0.0	 0.0	 1	    0.97121	  -14.25845	 0.0	 1	    1.06000	    0.94000;
	31	 1	 6.69	 2.90	 0.0	 0.0	 1	    0.94000	  -14.90390	 0.0	 1	    1.06000	    0.94000;
	32	 1	 1.85	 0.80	 0.0	 0.0	 1	    0.95179	  -13.58733	 0.0	 1	    1.06000	    0.94000;
	33	 1	 4.38	 1.90	 0.0	 0.0	 1	    0.94926	  -13.64009	 0.0	 1	    1.06000	    0.94000;
	34	 1	 0.00	 0.00	 0.0	 0.0	 1	    0.95623	   -8.42185	 0.0	 1	    1.06000	    0.94000;
	35	 1	 6.92	 3.00	 0.0	 0.0	 1	    0.96368	   -8.09866	 0.0	 1	    1.06000	    0.94000;
	36	 1	 0.00	 0.00	 0.0	 0.0	 1	    0.97413	   -7.74086	 0.0	 1	    1.06000	    0.94000;
	37	 1	 0.00	 0.00	 0.0	 0.0	 1	    0.98404	   -7.46037	 0.0	 1	    1.06000	    0.94000;
	38	 1	 16.14	 7.00	 0.0	 0.0	 1	    1.01446	   -6.43878	 0.0	 1	    1.06000	    0.94000;
	39	 1	 0.00	 0.00	 0.0	 0.0	 1	    0.98174	   -7.53464	 0.0	 1	    1.06000	    0.94000;
	40	 1	 0.00	 0.00	 0.0	 0.0	 1	    0.97087	   -7.80721	 0.0	 1	    1.06000	    0.94000;
	41	 1	 7.27	 3.00	 0.0	 0.0	 1	    1.00168	   -9.20981	 0.0	 1	    1.06000	    0.94000;
	42	 1	 8.19	 4.40	 0.0	 0.0	 1	    0.96943	  -10.73803	 0.0	 1	    1.06000	    0.94000;
	43	 1	 2.31	 1.00	 0.0	 0.0	 1	    1.01695	   -6.29402	 0.0	 1	    1.06000	    0.94000;
	44	 1	 13.84	 1.80	 0.0	 0.0	 1	    1.01942	   -5.23308	 0.0	 1	    1.06000	    0.94000;
	45	 1	 0.00	 0.00	 0.0	 0.0	 1	    1.04287	   -1.86068	 0.0	 1	    1.06000	    0.94000;
	46	 1	 0.00	 0.00	 0.0	 0.0	 1	    1.06000	   -4.36769	 0.0	 1	    1.06000	    0.94000;
	47	 1	 34.25	 11.60	 0.0	 0.0	 1	    1.03336	   -6.07798	 0.0	 1	    1.06000	    0.94000;
	48	 1	 0.00	 0.00	 0.0	 0.0	 1	    1.02749	   -6.24659	 0.0	 1	    1.06000	    0.94000;
	49	 1	 20.76	 8.50	 0.0	 0.0	 1	    1.03315	   -6.75246	 0.0	 1	    1.06000	    0.94000;
	50	 1	 24.22	 10.50	 0.0	 0.0	 1	    1.01543	   -7.60926	 0.0	 1	    1.06000	    0.94000;
	51	 1	 20.76	 5.30	 0.0	 0.0	 1	    1.04092	   -6.96906	 0.0	 1	    1.06000	    0.94000;
	52	 1	 5.65	 2.20	 0.0	 0.0	 1	    1.01964	   -8.17112	 0.0	 1	    1.06000	    0.94000;
	53	 1	 23.06	 10.00	 0.0	 6.3	 1	    1.00720	   -8.97868	 0.0	 1	    1.06000	    0.94000;
	54	 1	 4.73	 1.40	 0.0	 0.0	 1	    1.02825	   -8.27837	 0.0	 1	    1.06000	    0.94000;
	55	 1	 7.84	 3.40	 0.0	 0.0	 1	    1.05934	   -7.17634	 0.0	 1	    1.06000	    0.94000;
	56	 1	 8.76	 2.20	 0.0	 0.0	 1	    0.97097	  -11.11899	 0.0	 1	    1.06000	    0.94000;
	57	 1	 7.73	 2.00	 0.0	 0.0	 1	    0.96693	  -11.57840	 0.0	 1	    1.06000	    0.94000;
];

%% generator data
%	bus	Pg	Qg	Qmax	Qmin	Vg	mBase	status	Pmax	Pmin	Pc1	Pc2	Qc1min	Qc1max	Qc2min	Qc2max	ramp_agc	ramp_10	ramp_30	ramp_q	apf
mpc.gen = [
	1	 2.0	 52.656	 141.0	 -140.0	 0.99827	 100.0	 1	 2	 0.0	 0.0	 0.0	 0.0	 0.0	 0.0	 0.0	 0.0	 0.0	 0.0	 0.0	 0.0; % COW
	2	 0.0	 50.0	 50.0	 -17.0	 1.0011	 100.0	 1	 0	 0.0	 0.0	 0.0	 0.0	 0.0	 0.0	 0.0	 0.0	 0.0	 0.0	 0.0	 0.0; % SYNC
	3	 663.0	 44.071	 332.0	 -332.0	 1.04902	 100.0	 1	 663	 0.0	 0.0	 0.0	 0.0	 0.0	 0.0	 0.0	 0.0	 0.0	 0.0	 0.0	 0.0; % NG
	6	 0.0	 40.129	 116.4	 -116.4	 1.03793	 100.0	 1	 0	 0.0	 0.0	 0.0	 0.0	 0.0	 0.0	 0.0	 0.0	 0.0	 0.0	 0.0	 0.0; % SYNC
	8	 325.429	 133.189	 293.0	 -293.0	 1.0545	 100.0	 1	 586	 0.0	 0.0	 0.0	 0.0	 0.0	 0.0	 0.0	 0.0	 0.0	 0.0	 0.0	 0.0; % NG
	9	 0.0	 35.703	 38.4	 -38.4	 1.00476	 100.0	 1	 0	 0.0	 0.0	 0.0	 0.0	 0.0	 0.0	 0.0	 0.0	 0.0	 0.0	 0.0	 0.0; % SYNC
	12	 498.0	 2.066	 249.0	 -249.0	 0.97848	 100.0	 1	 498	 0.0	 0.0	 0.0	 0.0	 0.0	 0.0	 0.0	 0.0	 0.0	 0.0	 0.0	 0.0; % NG
];

%% generator cost data
%	2	startup	shutdown	n	c(n-1)	...	c0
mpc.gencost = [
	2	 0.0	 0.0	 3	   0.000000	   0.759510	   0.000000; % COW
	2	 0.0	 0.0	 3	   0.000000	   0.000000	   0.000000; % SYNC
	2	 0.0	 0.0	 3	   0.000000	   0.879823	   0.000000; % NG
	2	 0.0	 0.0	 3	   0.000000	   0.000000	   0.000000; % SYNC
	2	 0.0	 0.0	 3	   0.000000	   1.092701	   0.000000; % NG
	2	 0.0	 0.0	 3	   0.000000	   0.000000	   0.000000; % SYNC
	2	 0.0	 0.0	 3	   0.000000	   0.984369	   0.000000; % NG
];

%% branch data
%	fbus	tbus	r	x	b	rateA	rateB	rateC	ratio	angle	status	angmin	angmax
mpc.branch = [
	1	 2	 0.0083	 0.028	 0.129	 1005.0	 1005.0	 1005.0	 0.0	 0.0	 1	 -30.0	 30.0;
	2	 3	 0.0298	 0.085	 0.0818	 326.0	 326.0	 326.0	 0.0	 0.0	 1	 -30.0	 30.0;
	3	 4	 0.0112	 0.0366	 0.038	 767.0	 767.0	 767.0	 0.0	 0.0	 1	 -30.0	 30.0;
	4	 5	 0.0625	 0.132	 0.0258	 201.0	 201.0	 201.0	 0.0	 0.0	 1	 -30.0	 30.0;
	4	 6	 0.043	 0.148	 0.0348	 191.0	 191.0	 191.0	 0.0	 0.0	 1	 -30.0	 30.0;
	6	 7	 0.02	 0.102	 0.0276	 283.0	 283.0	 283.0	 0.0	 0.0	 1	 -30.0	 30.0;
	6	 8	 0.0339	 0.173	 0.047	 167.0	 167.0	 167.0	 0.0	 0.0	 1	 -30.0	 30.0;
	8	 9	 0.0099	 0.0505	 0.0548	 570.0	 570.0	 570.0	 0.0	 0.0	 1	 -30.0	 30.0;
	9	 10	 0.0369	 0.1679	 0.044	 171.0	 171.0	 171.0	 0.0	 0.0	 1	 -30.0	 30.0;
	9	 11	 0.0258	 0.0848	 0.0218	 331.0	 331.0	 331.0	 0.0	 0.0	 1	 -30.0	 30.0;
	9	 12	 0.0648	 0.295	 0.0772	 98.0	 98.0	 98.0	 0.0	 0.0	 1	 -30.0	 30.0;
	9	 13	 0.0481	 0.158	 0.0406	 178.0	 178.0	 178.0	 0.0	 0.0	 1	 -30.0	 30.0;
	13	 14	 0.0132	 0.0434	 0.011	 647.0	 647.0	 647.0	 0.0	 0.0	 1	 -30.0	 30.0;
	13	 15	 0.0269	 0.0869	 0.023	 323.0	 323.0	 323.0	 0.0	 0.0	 1	 -30.0	 30.0;
	1	 15	 0.0178	 0.091	 0.0988	 317.0	 317.0	 317.0	 0.0	 0.0	 1	 -30.0	 30.0;
	1	 16	 0.0454	 0.206	 0.0546	 140.0	 140.0	 140.0	 0.0	 0.0	 1	 -30.0	 30.0;
	1	 17	 0.0238	 0.108	 0.0286	 266.0	 266.0	 266.0	 0.0	 0.0	 1	 -30.0	 30.0;
	3	 15	 0.0162	 0.053	 0.0544	 530.0	 530.0	 530.0	 0.0	 0.0	 1	 -30.0	 30.0;
	4	 18	 0.0	 0.555	 0.0	 53.0	 53.0	 53.0	 0.97	 0.0	 1	 -30.0	 30.0;
	4	 18	 0.0	 0.43	 0.0	 69.0	 69.0	 69.0	 0.978	 0.0	 1	 -30.0	 30.0;
	5	 6	 0.0302	 0.0641	 0.0124	 414.0	 414.0	 414.0	 0.0	 0.0	 1	 -30.0	 30.0;
	7	 8	 0.0139	 0.0712	 0.0194	 405.0	 405.0	 405.0	 0.0	 0.0	 1	 -30.0	 30.0;
	10	 12	 0.0277	 0.1262	 0.0328	 228.0	 228.0	 228.0	 0.0	 0.0	 1	 -30.0	 30.0;
	11	 13	 0.0223	 0.0732	 0.0188	 384.0	 384.0	 384.0	 0.0	 0.0	 1	 -30.0	 30.0;
	12	 13	 0.0178	 0.058	 0.0604	 484.0	 484.0	 484.0	 0.0	 0.0	 1	 -30.0	 30.0;
	12	 16	 0.018	 0.0813	 0.0216	 353.0	 353.0	 353.0	 0.0	 0.0	 1	 -30.0	 30.0;
	12	 17	 0.0397	 0.179	 0.0476	 160.0	 160.0	 160.0	 0.0	 0.0	 1	 -30.0	 30.0;
	14	 15	 0.0171	 0.0547	 0.0148	 512.0	 512.0	 512.0	 0.0	 0.0	 1	 -30.0	 30.0;
	18	 19	 0.461	 0.685	 0.0	 36.0	 36.0	 36.0	 0.0	 0.0	 1	 -30.0	 30.0;
	19	 20	 0.283	 0.434	 0.0	 57.0	 57.0	 57.0	 0.0	 0.0	 1	 -30.0	 30.0;
	21	 20	 0.0	 0.7767	 0.0	 38.0	 38.0	 38.0	 1.043	 0.0	 1	 -30.0	 30.0;
	21	 22	 0.0736	 0.117	 0.0	 213.0	 213.0	 213.0	 0.0	 0.0	 1	 -30.0	 30.0;
	22	 23	 0.0099	 0.0152	 0.0	 1617.0	 1617.0	 1617.0	 0.0	 0.0	 1	 -30.0	 30.0;
	23	 24	 0.166	 0.256	 0.0084	 97.0	 97.0	 97.0	 0.0	 0.0	 1	 -30.0	 30.0;
	24	 25	 0.0	 1.182	 0.0	 25.0	 25.0	 25.0	 1.0	 0.0	 1	 -30.0	 30.0;
	24	 25	 0.0	 1.23	 0.0	 24.0	 24.0	 24.0	 1.0	 0.0	 1	 -30.0	 30.0;
	24	 26	 0.0	 0.0473	 0.0	 621.0	 621.0	 621.0	 1.043	 0.0	 1	 -30.0	 30.0;
	26	 27	 0.165	 0.254	 0.0	 97.0	 97.0	 97.0	 0.0	 0.0	 1	 -30.0	 30.0;
	27	 28	 0.0618	 0.0954	 0.0	 259.0	 259.0	 259.0	 0.0	 0.0	 1	 -30.0	 30.0;
	28	 29	 0.0418	 0.0587	 0.0	 408.0	 408.0	 408.0	 0.0	 0.0	 1	 -30.0	 30.0;
	7	 29	 0.0	 0.0648	 0.0	 453.0	 453.0	 453.0	 0.967	 0.0	 1	 -30.0	 30.0;
	25	 30	 0.135	 0.202	 0.0	 121.0	 121.0	 121.0	 0.0	 0.0	 1	 -30.0	 30.0;
	30	 31	 0.326	 0.497	 0.0	 50.0	 50.0	 50.0	 0.0	 0.0	 1	 -30.0	 30.0;
	31	 32	 0.507	 0.755	 0.0	 33.0	 33.0	 33.0	 0.0	 0.0	 1	 -30.0	 30.0;
	32	 33	 0.0392	 0.036	 0.0	 552.0	 552.0	 552.0	 0.0	 0.0	 1	 -30.0	 30.0;
	34	 32	 0.0	 0.953	 0.0	 31.0	 31.0	 31.0	 0.975	 0.0	 1	 -30.0	 30.0;
	34	 35	 0.052	 0.078	 0.0032	 313.0	 313.0	 313.0	 0.0	 0.0	 1	 -30.0	 30.0;
	35	 36	 0.043	 0.0537	 0.0016	 427.0	 427.0	 427.0	 0.0	 0.0	 1	 -30.0	 30.0;
	36	 37	 0.029	 0.0366	 0.0	 629.0	 629.0	 629.0	 0.0	 0.0	 1	 -30.0	 30.0;
	37	 38	 0.0651	 0.1009	 0.002	 245.0	 245.0	 245.0	 0.0	 0.0	 1	 -30.0	 30.0;
	37	 39	 0.0239	 0.0379	 0.0	 655.0	 655.0	 655.0	 0.0	 0.0	 1	 -30.0	 30.0;
	36	 40	 0.03	 0.0466	 0.0	 530.0	 530.0	 530.0	 0.0	 0.0	 1	 -30.0	 30.0;
	22	 38	 0.0192	 0.0295	 0.0	 834.0	 834.0	 834.0	 0.0	 0.0	 1	 -30.0	 30.0;
	11	 41	 0.0	 0.749	 0.0	 40.0	 40.0	 40.0	 0.955	 0.0	 1	 -30.0	 30.0;
	41	 42	 0.207	 0.352	 0.0	 72.0	 72.0	 72.0	 0.0	 0.0	 1	 -30.0	 30.0;
	41	 43	 0.0	 0.412	 0.0	 72.0	 72.0	 72.0	 0.0	 0.0	 1	 -30.0	 30.0;
	38	 44	 0.0289	 0.0585	 0.002	 450.0	 450.0	 450.0	 0.0	 0.0	 1	 -30.0	 30.0;
	15	 45	 0.0	 0.1042	 0.0	 282.0	 282.0	 282.0	 0.955	 0.0	 1	 -30.0	 30.0;
	14	 46	 0.0	 0.0735	 0.0	 400.0	 400.0	 400.0	 0.9	 0.0	 1	 -30.0	 30.0;
	46	 47	 0.023	 0.068	 0.0032	 409.0	 409.0	 409.0	 0.0	 0.0	 1	 -30.0	 30.0;
	47	 48	 0.0182	 0.0233	 0.0	 993.0	 993.0	 993.0	 0.0	 0.0	 1	 -30.0	 30.0;
	48	 49	 0.0834	 0.129	 0.0048	 191.0	 191.0	 191.0	 0.0	 0.0	 1	 -30.0	 30.0;
	49	 50	 0.0801	 0.128	 0.0	 195.0	 195.0	 195.0	 0.0	 0.0	 1	 -30.0	 30.0;
	50	 51	 0.1386	 0.22	 0.0	 113.0	 113.0	 113.0	 0.0	 0.0	 1	 -30.0	 30.0;
	10	 51	 0.0	 0.0712	 0.0	 412.0	 412.0	 412.0	 0.93	 0.0	 1	 -30.0	 30.0;
	13	 49	 0.0	 0.191	 0.0	 154.0	 154.0	 154.0	 0.895	 0.0	 1	 -30.0	 30.0;
	29	 52	 0.1442	 0.187	 0.0	 125.0	 125.0	 125.0	 0.0	 0.0	 1	 -30.0	 30.0;
	52	 53	 0.0762	 0.0984	 0.0	 236.0	 236.0	 236.0	 0.0	 0.0	 1	 -30.0	 30.0;
	53	 54	 0.1878	 0.232	 0.0	 99.0	 99.0	 99.0	 0.0	 0.0	 1	 -30.0	 30.0;
	54	 55	 0.1732	 0.2265	 0.0	 103.0	 103.0	 103.0	 0.0	 0.0	 1	 -30.0	 30.0;
	11	 43	 0.0	 0.153	 0.0	 192.0	 192.0	 192.0	 0.958	 0.0	 1	 -30.0	 30.0;
	44	 45	 0.0624	 0.1242	 0.004	 212.0	 212.0	 212.0	 0.0	 0.0	 1	 -30.0	 30.0;
	40	 56	 0.0	 1.195	 0.0	 25.0	 25.0	 25.0	 0.958	 0.0	 1	 -30.0	 30.0;
	56	 41	 0.553	 0.549	 0.0	 38.0	 38.0	 38.0	 0.0	 0.0	 1	 -30.0	 30.0;
	56	 42	 0.2125	 0.354	 0.0	 72.0	 72.0	 72.0	 0.0	 0.0	 1	 -30.0	 30.0;
	39	 57	 0.0	 1.355	 0.0	 22.0	 22.0	 22.0	 0.98	 0.0	 1	 -30.0	 30.0;
	57	 56	 0.174	 0.26	 0.0	 94.0	 94.0	 94.0	 0.0	 0.0	 1	 -30.0	 30.0;
	38	 49	 0.115	 0.177	 0.003	 139.0	 139.0	 139.0	 0.0	 0.0	 1	 -30.0	 30.0;
	38	 48	 0.0312	 0.0482	 0.0	 511.0	 511.0	 511.0	 0.0	 0.0	 1	 -30.0	 30.0;
	9	 55	 0.0	 0.1205	 0.0	 244.0	 244.0	 244.0	 0.94	 0.0	 1	 -30.0	 30.0;
];

% INFO    : === Translation Options ===
% INFO    : Load Model:                  from file ./nesta_case57_ieee.m.api.sol
% INFO    : Gen Active Capacity Model:   stat
% INFO    : Gen Reactive Capacity Model: al50ag
% INFO    : Gen Active Cost Model:       stat
% INFO    : 
% INFO    : === Load Replacement Notes ===
% INFO    : Bus 1	: Pd=55.0, Qd=17.0 -> Pd=63.42, Qd=17.00
% INFO    : Bus 2	: Pd=3.0, Qd=88.0 -> Pd=3.46, Qd=88.00
% INFO    : Bus 3	: Pd=41.0, Qd=21.0 -> Pd=47.28, Qd=21.00
% INFO    : Bus 4	: Pd=0.0, Qd=0.0 -> Pd=0.00, Qd=0.00
% INFO    : Bus 5	: Pd=13.0, Qd=4.0 -> Pd=14.99, Qd=4.00
% INFO    : Bus 6	: Pd=75.0, Qd=2.0 -> Pd=86.49, Qd=2.00
% INFO    : Bus 7	: Pd=0.0, Qd=0.0 -> Pd=0.00, Qd=0.00
% INFO    : Bus 8	: Pd=150.0, Qd=22.0 -> Pd=172.98, Qd=22.00
% INFO    : Bus 9	: Pd=121.0, Qd=26.0 -> Pd=139.53, Qd=26.00
% INFO    : Bus 10	: Pd=5.0, Qd=2.0 -> Pd=5.77, Qd=2.00
% INFO    : Bus 11	: Pd=0.0, Qd=0.0 -> Pd=0.00, Qd=0.00
% INFO    : Bus 12	: Pd=377.0, Qd=24.0 -> Pd=434.75, Qd=24.00
% INFO    : Bus 13	: Pd=18.0, Qd=2.3 -> Pd=20.76, Qd=2.30
% INFO    : Bus 14	: Pd=10.5, Qd=5.3 -> Pd=12.11, Qd=5.30
% INFO    : Bus 15	: Pd=22.0, Qd=5.0 -> Pd=25.37, Qd=5.00
% INFO    : Bus 16	: Pd=43.0, Qd=3.0 -> Pd=49.59, Qd=3.00
% INFO    : Bus 17	: Pd=42.0, Qd=8.0 -> Pd=48.43, Qd=8.00
% INFO    : Bus 18	: Pd=27.2, Qd=9.8 -> Pd=31.37, Qd=9.80
% INFO    : Bus 19	: Pd=3.3, Qd=0.6 -> Pd=3.81, Qd=0.60
% INFO    : Bus 20	: Pd=2.3, Qd=1.0 -> Pd=2.65, Qd=1.00
% INFO    : Bus 21	: Pd=0.0, Qd=0.0 -> Pd=0.00, Qd=0.00
% INFO    : Bus 22	: Pd=0.0, Qd=0.0 -> Pd=0.00, Qd=0.00
% INFO    : Bus 23	: Pd=6.3, Qd=2.1 -> Pd=7.27, Qd=2.10
% INFO    : Bus 24	: Pd=0.0, Qd=0.0 -> Pd=0.00, Qd=0.00
% INFO    : Bus 25	: Pd=6.3, Qd=3.2 -> Pd=7.27, Qd=3.20
% INFO    : Bus 26	: Pd=0.0, Qd=0.0 -> Pd=0.00, Qd=0.00
% INFO    : Bus 27	: Pd=9.3, Qd=0.5 -> Pd=10.72, Qd=0.50
% INFO    : Bus 28	: Pd=4.6, Qd=2.3 -> Pd=5.30, Qd=2.30
% INFO    : Bus 29	: Pd=17.0, Qd=2.6 -> Pd=19.60, Qd=2.60
% INFO    : Bus 30	: Pd=3.6, Qd=1.8 -> Pd=4.15, Qd=1.80
% INFO    : Bus 31	: Pd=5.8, Qd=2.9 -> Pd=6.69, Qd=2.90
% INFO    : Bus 32	: Pd=1.6, Qd=0.8 -> Pd=1.85, Qd=0.80
% INFO    : Bus 33	: Pd=3.8, Qd=1.9 -> Pd=4.38, Qd=1.90
% INFO    : Bus 34	: Pd=0.0, Qd=0.0 -> Pd=0.00, Qd=0.00
% INFO    : Bus 35	: Pd=6.0, Qd=3.0 -> Pd=6.92, Qd=3.00
% INFO    : Bus 36	: Pd=0.0, Qd=0.0 -> Pd=0.00, Qd=0.00
% INFO    : Bus 37	: Pd=0.0, Qd=0.0 -> Pd=0.00, Qd=0.00
% INFO    : Bus 38	: Pd=14.0, Qd=7.0 -> Pd=16.14, Qd=7.00
% INFO    : Bus 39	: Pd=0.0, Qd=0.0 -> Pd=0.00, Qd=0.00
% INFO    : Bus 40	: Pd=0.0, Qd=0.0 -> Pd=0.00, Qd=0.00
% INFO    : Bus 41	: Pd=6.3, Qd=3.0 -> Pd=7.27, Qd=3.00
% INFO    : Bus 42	: Pd=7.1, Qd=4.4 -> Pd=8.19, Qd=4.40
% INFO    : Bus 43	: Pd=2.0, Qd=1.0 -> Pd=2.31, Qd=1.00
% INFO    : Bus 44	: Pd=12.0, Qd=1.8 -> Pd=13.84, Qd=1.80
% INFO    : Bus 45	: Pd=0.0, Qd=0.0 -> Pd=0.00, Qd=0.00
% INFO    : Bus 46	: Pd=0.0, Qd=0.0 -> Pd=0.00, Qd=0.00
% INFO    : Bus 47	: Pd=29.7, Qd=11.6 -> Pd=34.25, Qd=11.60
% INFO    : Bus 48	: Pd=0.0, Qd=0.0 -> Pd=0.00, Qd=0.00
% INFO    : Bus 49	: Pd=18.0, Qd=8.5 -> Pd=20.76, Qd=8.50
% INFO    : Bus 50	: Pd=21.0, Qd=10.5 -> Pd=24.22, Qd=10.50
% INFO    : Bus 51	: Pd=18.0, Qd=5.3 -> Pd=20.76, Qd=5.30
% INFO    : Bus 52	: Pd=4.9, Qd=2.2 -> Pd=5.65, Qd=2.20
% INFO    : Bus 53	: Pd=20.0, Qd=10.0 -> Pd=23.06, Qd=10.00
% INFO    : Bus 54	: Pd=4.1, Qd=1.4 -> Pd=4.73, Qd=1.40
% INFO    : Bus 55	: Pd=6.8, Qd=3.4 -> Pd=7.84, Qd=3.40
% INFO    : Bus 56	: Pd=7.6, Qd=2.2 -> Pd=8.76, Qd=2.20
% INFO    : Bus 57	: Pd=6.7, Qd=2.0 -> Pd=7.73, Qd=2.00
% INFO    : 
% INFO    : === Generator Setpoint Replacement Notes ===
% INFO    : Gen at bus 1	: Pg=282.0, Qg=51.226 -> Pg=1.0, Qg=-44.0
% INFO    : Gen at bus 2	: Pg=0.0, Qg=50.0 -> Pg=0.0, Qg=-11.0
% INFO    : Gen at bus 3	: Pg=61.0, Qg=31.0 -> Pg=587.0, Qg=86.0
% INFO    : Gen at bus 6	: Pg=0.0, Qg=9.673 -> Pg=0.0, Qg=97.0
% INFO    : Gen at bus 8	: Pg=399.272, Qg=71.205 -> Pg=460.0, Qg=45.0
% INFO    : Gen at bus 9	: Pg=0.0, Qg=9.0 -> Pg=0.0, Qg=32.0
% INFO    : Gen at bus 12	: Pg=524.0, Qg=45.728 -> Pg=441.0, Qg=159.0
% INFO    : 
% INFO    : === Generator Reactive Capacity Atleast Setpoint Value Notes ===
% INFO    : Gen at bus 3	: Qg 86.0, Qmin -10.0, Qmax 31.0 -> Qmin -103.2, Qmax 103.2
% INFO    : Gen at bus 6	: Qg 97.0, Qmin -8.0, Qmax 25.0 -> Qmin -116.4, Qmax 116.4
% INFO    : Gen at bus 9	: Qg 32.0, Qmin -3.0, Qmax 9.0 -> Qmin -38.4, Qmax 38.4
% INFO    : Gen at bus 12	: Qg 159.0, Qmin -150.0, Qmax 155.0 -> Qmin -190.8, Qmax 190.8
% INFO    : 
% INFO    : === Generator Classification Notes ===
% INFO    : SYNC   3   -     0.00
% INFO    : COW    1   -     0.07
% INFO    : NG     3   -    99.93
% INFO    : 
% INFO    : === Generator Active Capacity Stat Model Notes ===
% INFO    : Gen at bus 1 - COW	: Pg=1.0, Pmax=282.0 -> Pmax=2   samples: 63
% INFO    : Gen at bus 2 - SYNC	: Pg=0.0, Pmax=0.0 -> Pmax=0   samples: 0
% WARNING : Failed to find a generator capacity within (587.0-2935.0) after 100 samples, using percent increase model
% INFO    : Gen at bus 3 - NG	: Pg=587.0, Pmax=61.0 -> Pmax=663   samples: 100
% INFO    : Gen at bus 6 - SYNC	: Pg=0.0, Pmax=0.0 -> Pmax=0   samples: 0
% INFO    : Gen at bus 8 - NG	: Pg=460.0, Pmax=510.0 -> Pmax=586   samples: 70
% INFO    : Gen at bus 9 - SYNC	: Pg=0.0, Pmax=0.0 -> Pmax=0   samples: 0
% WARNING : Failed to find a generator capacity within (441.0-2205.0) after 100 samples, using percent increase model
% INFO    : Gen at bus 12 - NG	: Pg=441.0, Pmax=524.0 -> Pmax=498   samples: 100
% INFO    : 
% INFO    : === Generator Active Capacity LB Model Notes ===
% INFO    : 
% INFO    : === Generator Reactive Capacity Atleast Max 50 Percent Active Model Notes ===
% INFO    : Gen at bus 3 - NG	: Pmax 663.0, Qmin -103.2, Qmax 103.2 -> Qmin -332.0, Qmax 332.0
% INFO    : Gen at bus 8 - NG	: Pmax 586.0, Qmin -140.0, Qmax 200.0 -> Qmin -293.0, Qmax 293.0
% INFO    : Gen at bus 12 - NG	: Pmax 498.0, Qmin -190.8, Qmax 190.8 -> Qmin -249.0, Qmax 249.0
% INFO    : 
% INFO    : === Generator Active Cost Stat Model Notes ===
% INFO    : Updated Generator Cost: COW - 0.0 0.750694 0.0 -> 0 0.759509607431 0
% INFO    : Updated Generator Cost: SYNC - 0.0 0.0 0.0 -> 0 0.0 0
% INFO    : Updated Generator Cost: NG - 0.0 0.836961 0.0 -> 0 0.879823187547 0
% INFO    : Updated Generator Cost: SYNC - 0.0 0.0 0.0 -> 0 0.0 0
% INFO    : Updated Generator Cost: NG - 0.0 1.172038 0.0 -> 0 1.09270133298 0
% INFO    : Updated Generator Cost: SYNC - 0.0 0.0 0.0 -> 0 0.0 0
% INFO    : Updated Generator Cost: NG - 0.0 0.787329 0.0 -> 0 0.984368716198 0
% INFO    : 
% INFO    : === Voltage Setpoint Replacement Notes ===
% INFO    : Bus 1	: V=1.02048, theta=-0.0 -> V=0.99827, theta=0.0
% INFO    : Bus 2	: V=1.00983, theta=-0.88821 -> V=1.0011, theta=2.27576
% INFO    : Bus 3	: V=1.00023, theta=-3.90593 -> V=1.04902, theta=8.64298
% INFO    : Bus 4	: V=0.99642, theta=-5.15644 -> V=1.03996, theta=4.79057
% INFO    : Bus 5	: V=0.99282, theta=-6.26487 -> V=1.03302, theta=-0.28426
% INFO    : Bus 6	: V=0.99651, theta=-6.35719 -> V=1.03793, theta=-2.26673
% INFO    : Bus 7	: V=0.99584, theta=-5.16438 -> V=1.03375, theta=-4.09596
% INFO    : Bus 8	: V=1.01478, theta=-2.1563 -> V=1.0545, theta=-2.97871
% INFO    : Bus 9	: V=0.98527, theta=-5.66347 -> V=1.00476, theta=-5.91185
% INFO    : Bus 10	: V=0.98337, theta=-5.58965 -> V=0.97558, theta=-5.84613
% INFO    : Bus 11	: V=0.97543, theta=-5.87668 -> V=0.9818, theta=-5.04174
% INFO    : Bus 12	: V=1.00399, theta=-2.756 -> V=0.97848, theta=-3.25677
% INFO    : Bus 13	: V=0.97718, theta=-5.11798 -> V=0.97378, theta=-3.27458
% INFO    : Bus 14	: V=0.97021, theta=-5.50277 -> V=0.96907, theta=-2.30233
% INFO    : Bus 15	: V=0.98924, theta=-4.42527 -> V=0.99367, theta=0.81957
% INFO    : Bus 16	: V=1.00307, theta=-3.39318 -> V=0.97716, theta=-4.05026
% INFO    : Bus 17	: V=1.00464, theta=-2.58321 -> V=0.97959, theta=-3.09889
% INFO    : Bus 18	: V=1.01546, theta=-9.32095 -> V=1.06, theta=-0.34391
% INFO    : Bus 19	: V=0.98207, theta=-10.24728 -> V=0.99877, theta=-3.53127
% INFO    : Bus 20	: V=0.97352, theta=-10.11483 -> V=0.97558, theta=-4.86263
% INFO    : Bus 21	: V=1.01067, theta=-9.27529 -> V=1.01602, theta=-6.43954
% INFO    : Bus 22	: V=1.01133, theta=-9.13587 -> V=1.01344, theta=-6.65323
% INFO    : Bus 23	: V=1.0101, theta=-9.22244 -> V=1.01257, theta=-6.79178
% INFO    : Bus 24	: V=1.00418, theta=-9.93708 -> V=1.01456, theta=-8.23795
% INFO    : Bus 25	: V=0.98689, theta=-14.71249 -> V=0.9936, theta=-13.66174
% INFO    : Bus 26	: V=0.96459, theta=-9.66973 -> V=0.97717, theta=-7.97862
% INFO    : Bus 27	: V=0.99021, theta=-8.64188 -> V=1.01646, theta=-7.52105
% INFO    : Bus 28	: V=1.00628, theta=-7.77902 -> V=1.03828, theta=-6.81995
% INFO    : Bus 29	: V=1.02025, theta=-7.17691 -> V=1.05597, theta=-6.31328
% INFO    : Bus 30	: V=0.96698, theta=-15.21886 -> V=0.97121, theta=-14.25845
% INFO    : Bus 31	: V=0.94, theta=-15.78695 -> V=0.94, theta=-14.9039
% INFO    : Bus 32	: V=0.95335, theta=-14.78199 -> V=0.95179, theta=-13.58733
% INFO    : Bus 33	: V=0.95107, theta=-14.82137 -> V=0.94926, theta=-13.64009
% INFO    : Bus 34	: V=0.96085, theta=-10.34229 -> V=0.95623, theta=-8.42185
% INFO    : Bus 35	: V=0.9678, theta=-10.08672 -> V=0.96368, theta=-8.09866
% INFO    : Bus 36	: V=0.97739, theta=-9.80627 -> V=0.97413, theta=-7.74086
% INFO    : Bus 37	: V=0.98634, theta=-9.61997 -> V=0.98404, theta=-7.46037
% INFO    : Bus 38	: V=1.0139, theta=-8.93323 -> V=1.01446, theta=-6.43878
% INFO    : Bus 39	: V=0.98432, theta=-9.65857 -> V=0.98174, theta=-7.53464
% INFO    : Bus 40	: V=0.97445, theta=-9.81876 -> V=0.97087, theta=-7.80721
% INFO    : Bus 41	: V=0.99806, theta=-9.86103 -> V=1.00168, theta=-9.20981
% INFO    : Bus 42	: V=0.96787, theta=-11.3799 -> V=0.96943, theta=-10.73803
% INFO    : Bus 43	: V=1.01116, theta=-7.0646 -> V=1.01695, theta=-6.29402
% INFO    : Bus 44	: V=1.0176, theta=-8.28194 -> V=1.01942, theta=-5.23308
% INFO    : Bus 45	: V=1.03567, theta=-6.16654 -> V=1.04287, theta=-1.86068
% INFO    : Bus 46	: V=1.06, theta=-7.22912 -> V=1.06, theta=-4.36769
% INFO    : Bus 47	: V=1.0338, theta=-8.58841 -> V=1.03336, theta=-6.07798
% INFO    : Bus 48	: V=1.02812, theta=-8.67564 -> V=1.02749, theta=-6.24659
% INFO    : Bus 49	: V=1.03716, theta=-8.58476 -> V=1.03315, theta=-6.75246
% INFO    : Bus 50	: V=1.02349, theta=-8.57109 -> V=1.01543, theta=-7.60926
% INFO    : Bus 51	: V=1.05143, theta=-6.85875 -> V=1.04092, theta=-6.96906
% INFO    : Bus 52	: V=0.99033, theta=-8.57271 -> V=1.01964, theta=-8.17112
% INFO    : Bus 53	: V=0.98069, theta=-9.15054 -> V=1.0072, theta=-8.97868
% INFO    : Bus 54	: V=1.00496, theta=-8.22033 -> V=1.02825, theta=-8.27837
% INFO    : Bus 55	: V=1.0383, theta=-6.96895 -> V=1.05934, theta=-7.17634
% INFO    : Bus 56	: V=0.96919, theta=-11.98094 -> V=0.97097, theta=-11.11899
% INFO    : Bus 57	: V=0.96542, theta=-12.5468 -> V=0.96693, theta=-11.5784
% INFO    : 
% INFO    : === Generator Setpoint Replacement Notes ===
% INFO    : Gen at bus 1	: Pg=1.0, Qg=-44.0 -> Pg=2.0, Qg=52.656
% INFO    : Gen at bus 1	: Vg=1.02048 -> Vg=0.99827
% INFO    : Gen at bus 2	: Pg=0.0, Qg=-11.0 -> Pg=0.0, Qg=50.0
% INFO    : Gen at bus 2	: Vg=1.00983 -> Vg=1.0011
% INFO    : Gen at bus 3	: Pg=587.0, Qg=86.0 -> Pg=663.0, Qg=44.071
% INFO    : Gen at bus 3	: Vg=1.00023 -> Vg=1.04902
% INFO    : Gen at bus 6	: Pg=0.0, Qg=97.0 -> Pg=0.0, Qg=40.129
% INFO    : Gen at bus 6	: Vg=0.99651 -> Vg=1.03793
% INFO    : Gen at bus 8	: Pg=460.0, Qg=45.0 -> Pg=325.429, Qg=133.189
% INFO    : Gen at bus 8	: Vg=1.01478 -> Vg=1.0545
% INFO    : Gen at bus 9	: Pg=0.0, Qg=32.0 -> Pg=0.0, Qg=35.703
% INFO    : Gen at bus 9	: Vg=0.98527 -> Vg=1.00476
% INFO    : Gen at bus 12	: Pg=441.0, Qg=159.0 -> Pg=498.0, Qg=2.066
% INFO    : Gen at bus 12	: Vg=1.00399 -> Vg=0.97848
% INFO    : 
% INFO    : === Writing Matpower Case File Notes ===
